C:\Users\klase\OneDrive\Bureau\Stage\Dossier programme\BeforeCalc_Final/output/9_hexagons1195_tinker_rota.xyz
 OpenBabel07192214043D

 58 66  0  0  1  0  0  0  0  0999 V2000
    6.7679    0.9575    0.4795 C   0  0  0  0  0  0  0  0  0  0  0  0
    5.5413    0.3452    0.0746 C   0  0  0  0  0  0  0  0  0  0  0  0
    7.9755    0.3336    0.2609 C   0  0  0  0  0  0  0  0  0  0  0  0
    4.2906    0.9636    0.2822 C   0  0  0  0  0  0  0  0  0  0  0  0
    5.5910   -0.9461   -0.5663 C   0  0  0  0  0  0  0  0  0  0  0  0
    3.0881    0.3661   -0.1056 C   0  0  0  0  0  0  0  0  0  0  0  0
    8.0236   -0.9413   -0.3752 C   0  0  0  0  0  0  0  0  0  0  0  0
    6.8630   -1.5631   -0.7768 C   0  0  0  0  0  0  0  0  0  0  0  0
    4.3796   -1.5488   -0.9542 C   0  0  0  0  0  0  0  0  0  0  0  0
    1.6651    2.3481    0.5114 C   0  0  0  0  0  0  0  0  0  0  0  0
    0.4396    2.9774    0.5443 C   0  0  0  0  0  0  0  0  0  0  0  0
    1.7814    0.9986    0.0965 C   0  0  0  0  0  0  0  0  0  0  0  0
   -0.7674    2.2776    0.2950 C   0  0  0  0  0  0  0  0  0  0  0  0
    3.1450   -0.9327   -0.7352 C   0  0  0  0  0  0  0  0  0  0  0  0
    0.5871    0.2752   -0.1823 C   0  0  0  0  0  0  0  0  0  0  0  0
    1.9138   -1.5550   -1.1422 C   0  0  0  0  0  0  0  0  0  0  0  0
   -2.0459    2.9808    0.1580 C   0  0  0  0  0  0  0  0  0  0  0  0
   -0.7044    0.8718    0.0887 C   0  0  0  0  0  0  0  0  0  0  0  0
   -2.1499    4.3825    0.3252 C   0  0  0  0  0  0  0  0  0  0  0  0
   -3.1988    2.2562   -0.2610 C   0  0  0  0  0  0  0  0  0  0  0  0
   -3.3283    5.0622    0.0516 C   0  0  0  0  0  0  0  0  0  0  0  0
    0.7045   -0.9943   -0.8662 C   0  0  0  0  0  0  0  0  0  0  0  0
   -1.9532    0.1141    0.0948 C   0  0  0  0  0  0  0  0  0  0  0  0
   -4.3805    2.9751   -0.5558 C   0  0  0  0  0  0  0  0  0  0  0  0
   -3.1624    0.7865   -0.2634 C   0  0  0  0  0  0  0  0  0  0  0  0
   -4.4498    4.3537   -0.4095 C   0  0  0  0  0  0  0  0  0  0  0  0
   -2.0458   -1.2733    0.5263 C   0  0  0  0  0  0  0  0  0  0  0  0
   -4.3121    0.0282   -0.5394 C   0  0  0  0  0  0  0  0  0  0  0  0
   -1.0447   -1.9090    1.3067 C   0  0  0  0  0  0  0  0  0  0  0  0
   -1.1553   -3.2515    1.6814 C   0  0  0  0  0  0  0  0  0  0  0  0
   -3.2329   -2.0215    0.2397 C   0  0  2  0  0  3  0  0  0  0  0  0
   -2.2586   -4.0115    1.3044 C   0  0  0  0  0  0  0  0  0  0  0  0
   -4.3572   -1.3734   -0.3690 C   0  0  0  0  0  0  0  0  0  0  0  0
   -3.3275   -3.4103    0.5920 C   0  0  0  0  0  0  0  0  0  0  0  0
   -5.5095   -2.1370   -0.6924 C   0  0  0  0  0  0  0  0  0  0  0  0
   -4.5016   -4.1339    0.2393 C   0  0  0  0  0  0  0  0  0  0  0  0
   -5.5658   -3.5025   -0.4027 C   0  0  0  0  0  0  0  0  0  0  0  0
    6.7291    1.9294    0.9637 H   0  0  0  0  0  0  0  0  0  0  0  0
    8.9000    0.8096    0.5716 H   0  0  0  0  0  0  0  0  0  0  0  0
    4.2888    1.9287    0.7768 H   0  0  0  0  0  0  0  0  0  0  0  0
    8.9842   -1.4189   -0.5401 H   0  0  0  0  0  0  0  0  0  0  0  0
    6.8957   -2.5352   -1.2607 H   0  0  0  0  0  0  0  0  0  0  0  0
    4.4042   -2.5239   -1.4343 H   0  0  0  0  0  0  0  0  0  0  0  0
    2.5532    2.9292    0.7266 H   0  0  0  0  0  0  0  0  0  0  0  0
    0.4142    4.0382    0.7575 H   0  0  0  0  0  0  0  0  0  0  0  0
    1.9680   -2.4928   -1.6873 H   0  0  0  0  0  0  0  0  0  0  0  0
   -1.2939    4.9516    0.6650 H   0  0  0  0  0  0  0  0  0  0  0  0
   -3.3777    6.1379    0.1865 H   0  0  0  0  0  0  0  0  0  0  0  0
   -0.1974   -1.4851   -1.2038 H   0  0  0  0  0  0  0  0  0  0  0  0
   -0.1828   -1.3424    1.6308 H   0  0  0  0  0  0  0  0  0  0  0  0
   -5.2647    2.4486   -0.8922 H   0  0  0  0  0  0  0  0  0  0  0  0
   -5.3716    4.8777   -0.6405 H   0  0  0  0  0  0  0  0  0  0  0  0
   -5.2184    0.5156   -0.8769 H   0  0  0  0  0  0  0  0  0  0  0  0
   -0.3661   -3.7015    2.2753 H   0  0  0  0  0  0  0  0  0  0  0  0
   -2.3278   -5.0600    1.5780 H   0  0  0  0  0  0  0  0  0  0  0  0
   -6.3559   -1.6401   -1.1571 H   0  0  0  0  0  0  0  0  0  0  0  0
   -4.5606   -5.1886    0.4905 H   0  0  0  0  0  0  0  0  0  0  0  0
   -6.4531   -4.0712   -0.6618 H   0  0  0  0  0  0  0  0  0  0  0  0
  1 38  1  0  0  0  0
  2  4  1  0  0  0  0
  2  1  2  0  0  0  0
  3  1  1  0  0  0  0
  3 39  1  0  0  0  0
  4 40  1  0  0  0  0
  5  2  1  0  0  0  0
  6 12  1  0  0  0  0
  6  4  2  0  0  0  0
  7  3  2  0  0  0  0
  8  5  2  0  0  0  0
  8  7  1  0  0  0  0
  9 14  2  0  0  0  0
  9  5  1  0  0  0  0
 10 11  1  0  0  0  0
 10 44  1  0  0  0  0
 11 45  1  0  0  0  0
 12 10  2  0  0  0  0
 13 11  2  0  0  0  0
 14  6  1  0  0  0  0
 15 18  2  0  0  0  0
 15 12  1  0  0  0  0
 16 22  2  0  0  0  0
 16 14  1  0  0  0  0
 17 13  1  0  0  0  0
 17 19  1  0  0  0  0
 18 23  1  0  0  0  0
 18 13  1  0  0  0  0
 19 47  1  0  0  0  0
 20 17  2  0  0  0  0
 21 48  1  0  0  0  0
 21 19  2  0  0  0  0
 22 15  1  0  0  0  0
 23 27  1  0  0  0  0
 24 26  2  0  0  0  0
 24 20  1  0  0  0  0
 25 20  1  0  0  0  0
 25 23  2  0  0  0  0
 26 21  1  0  0  0  0
 27 29  2  0  0  0  0
 28 33  2  0  0  0  0
 28 25  1  0  0  0  0
 29 50  1  0  0  0  0
 29 30  1  0  0  0  0
 30 54  1  0  0  0  0
 31 33  1  1  0  0  0
 31 27  1  0  0  0  0
 31 34  1  0  0  0  0
 32 55  1  0  0  0  0
 32 30  2  0  0  0  0
 34 32  1  0  0  0  0
 35 37  2  0  0  0  0
 35 33  1  0  0  0  0
 36 57  1  0  0  0  0
 36 34  2  0  0  0  0
 37 36  1  0  0  0  0
 41  7  1  0  0  0  0
 42  8  1  0  0  0  0
 43  9  1  0  0  0  0
 46 16  1  0  0  0  0
 49 22  1  0  0  0  0
 51 24  1  0  0  0  0
 52 26  1  0  0  0  0
 53 28  1  0  0  0  0
 56 35  1  0  0  0  0
 58 37  1  0  0  0  0
M  END
